
  NIST    07011511133D 1   1.00000  -385.89271
Copyright by the U.S. Sec. Commerce on behalf of U.S.A. All rights reserved.
 18 19  0  0  0  0  0  0  0  0999 V2000
    3.4126    1.8154    2.1378 C    0  0  0  0  0  0  0  0  0  0  0  0
    2.8372    3.0851    2.4733 C    0  0  0  0  0  0  0  0  0  0  0  0
    3.5308    3.9347    3.3770 C    0  0  0  0  0  0  0  0  0  0  0  0
    1.5934    3.4497    1.8906 C    0  0  0  0  0  0  0  0  0  0  0  0
    2.7191    0.9658    1.2341 C    0  0  0  0  0  0  0  0  0  0  0  0
    4.6565    1.4508    2.7204 C    0  0  0  0  0  0  0  0  0  0  0  0
    4.7344    3.5517    3.9243 C    0  0  0  0  0  0  0  0  0  0  0  0
    0.9467    2.6035    1.0184 C    0  0  0  0  0  0  0  0  0  0  0  0
    1.5155    1.3488    0.6867 C    0  0  0  0  0  0  0  0  0  0  0  0
    5.3031    2.2970    3.5927 C    0  0  0  0  0  0  0  0  0  0  0  0
    3.0920    4.8973    3.6300 H    0  0  0  0  0  0  0  0  0  0  0  0
    1.1591    4.4133    2.1474 H    0  0  0  0  0  0  0  0  0  0  0  0
    3.1579    0.0032    0.9810 H    0  0  0  0  0  0  0  0  0  0  0  0
    5.0907    0.4872    2.4637 H    0  0  0  0  0  0  0  0  0  0  0  0
    5.2541    4.2113    4.6141 H    0  0  0  0  0  0  0  0  0  0  0  0
   -0.0041    2.8948    0.5801 H    0  0  0  0  0  0  0  0  0  0  0  0
    0.9958    0.6892   -0.0031 H    0  0  0  0  0  0  0  0  0  0  0  0
    6.2539    2.0057    4.0309 H    0  0  0  0  0  0  0  0  0  0  0  0
  1  5  1  0  0  0  0
  2  1  1  0  0  0  0
  2  3  2  0  0  0  0
  3  7  1  0  0  0  0
  3 11  1  0  0  0  0
  4  2  1  0  0  0  0
  4 12  1  0  0  0  0
  5  9  2  0  0  0  0
  5 13  1  0  0  0  0
  6  1  2  0  0  0  0
  6 14  1  0  0  0  0
  7 10  2  0  0  0  0
  7 15  1  0  0  0  0
  8  4  2  0  0  0  0
  8 16  1  0  0  0  0
  9  8  1  0  0  0  0
  9 17  1  0  0  0  0
 10  6  1  0  0  0  0
 10 18  1  0  0  0  0
M  END
> <COPYRIGHT>
Collection (C) 2016 copyright by the U.S. Secretary of Commerce on behalf of the United States of America. All rights reserved.

> <DATE>
2015-07-01

> <CAS.NUMBER>
91-20-3

> <METHOD>
B3LYP/6-31G*

> <DIPOLE.MOMENT>
0.0000 debye

> <ELECTRONIC.ENERGY>
-385.892706001 hartree

> <IR.FREQUENCIES>
"Frequency (cm-1)"   "Intensity (km/mol)"
175.9173  1.5641
189.8964  0.0000
363.7173  1.2080
396.7571  0.0000
481.8263  0.0000
491.7294  12.2453
517.6958  0.0000
520.4561  0.0000
633.3997  0.0130
635.5222  3.4228
734.8814  0.0000
776.2388  0.0000
785.4630  0.0000
804.0922  90.6917
807.9750  0.3950
852.8577  0.0001
900.3111  0.0000
947.2386  0.0000
949.3179  0.0000
963.4293  3.4050
985.4817  0.0000
994.0975  0.0000
1044.8580  4.5527
1055.8700  0.0000
1157.1229  3.0967
1181.2547  0.0000
1184.1504  0.7104
1194.1543  0.0000
1243.7036  0.9883
1277.8134  0.0000
1296.8051  8.0421
1410.1960  1.1756
1416.4681  0.0000
1431.2897  3.0020
1505.6278  0.0000
1509.8880  0.0000
1567.0405  7.3282
1630.0085  0.0000
1658.8010  4.9510
1688.2172  0.0000
3175.7309  0.0000
3177.7545  8.4577
3179.3859  0.9872
3183.1464  0.0000
3194.4104  0.0000
3195.7118  70.0105
3207.6669  59.3459
3208.9497  0.0000

> <ROTATIONAL.CONSTANTS>
3.11775 GHz
1.22999 GHz
0.88202 GHz

> <SOFTWARE>
Gaussian 09, Revision D.01

> <CONTRIBUTOR>
Avi Newman

$$$$
